*Heading 
** Job name: model_transverse_shear Model name: model_transverse_shear
** Generated by: in-house model generator 
*Preprint, echo=NO, model=NO, history=NO, contact=NO 
**
** PARTS
**
*Part, name=PART-LAYER
*Node
1, 0.20000000, 0.05000000, 0.00100000
2, 0.20000000, 0.04000000, 0.00100000
3, 0.20000000, 0.03000000, 0.00100000
4, 0.20000000, 0.02000000, 0.00100000
5, 0.20000000, 0.01000000, 0.00100000
6, 0.20000000, 0.00000000, 0.00100000
7, 0.20000000, 0.05000000, 0.00000000
8, 0.20000000, 0.04000000, 0.00000000
9, 0.20000000, 0.03000000, 0.00000000
10, 0.20000000, 0.02000000, 0.00000000
11, 0.20000000, 0.01000000, 0.00000000
12, 0.20000000, 0.00000000, 0.00000000
13, 0.19000000, 0.05000000, 0.00100000
14, 0.19000000, 0.04000000, 0.00100000
15, 0.19000000, 0.03000000, 0.00100000
16, 0.19000000, 0.02000000, 0.00100000
17, 0.19000000, 0.01000000, 0.00100000
18, 0.19000000, 0.00000000, 0.00100000
19, 0.19000000, 0.05000000, 0.00000000
20, 0.19000000, 0.04000000, 0.00000000
** ... 232 like lines cut
*Element, type=SC8R
1, 13, 14, 20, 19, 1, 2, 8, 7
2, 14, 15, 21, 20, 2, 3, 9, 8
3, 15, 16, 22, 21, 3, 4, 10, 9
4, 16, 17, 23, 22, 4, 5, 11, 10
5, 17, 18, 24, 23, 5, 6, 12, 11
6, 25, 26, 32, 31, 13, 14, 20, 19
7, 26, 27, 33, 32, 14, 15, 21, 20
8, 27, 28, 34, 33, 15, 16, 22, 21
9, 28, 29, 35, 34, 16, 17, 23, 22
10, 29, 30, 36, 35, 17, 18, 24, 23
11, 37, 38, 44, 43, 25, 26, 32, 31
12, 38, 39, 45, 44, 26, 27, 33, 32
13, 39, 40, 46, 45, 27, 28, 34, 33
14, 40, 41, 47, 46, 28, 29, 35, 34
15, 41, 42, 48, 47, 29, 30, 36, 35
16, 49, 50, 56, 55, 37, 38, 44, 43
17, 50, 51, 57, 56, 38, 39, 45, 44
18, 51, 52, 58, 57, 39, 40, 46, 45
19, 52, 53, 59, 58, 40, 41, 47, 46
20, 53, 54, 60, 59, 41, 42, 48, 47
** ... 80 like lines cut
*Nset, nset=LAYER, generate
1, 252, 1
*Elset, elset=LAYER, generate
1, 100, 1
*Orientation, name=Ori-1
1., 0., 0., 0., 1., 0.
3, 0.
** Section: Section-1
*Shell Section, elset=LAYER, material=HYPODRAPE, orientation=Ori-1, controls=EC-1, poisson=0.0, thickness modulus=117000000.0, stack direction=ORIENTATION
1., 5
*Transverse Shear Stiffness
441667.0, 441667.0, 0.0
*End Part
**
*Part, name=Part-Tool1
*End Part
**
*Part, name=Part-Tool2
*End Part
**
**
** ASSEMBLY
**
*Assembly, name=Assembly
**
*Instance, name=LAYER1, part=PART-LAYER
0., 0., 0.0
*End Instance
**
*Instance, name=LAYER2, part=PART-LAYER
0., 0., 0.001
*End Instance
**
*Instance, name=LAYER3, part=PART-LAYER
0., 0., 0.002
*End Instance
**
*Instance, name=LAYER4, part=PART-LAYER
0., 0., 0.003
*End Instance
**
*Instance, name=LAYER5, part=PART-LAYER
0., 0., 0.004
*End Instance
**
*Instance, name=LAYER6, part=PART-LAYER
0., 0., 0.005
*End Instance
**
*Instance, name=LAYER7, part=PART-LAYER
0., 0., 0.006
*End Instance
**
*Instance, name=LAYER8, part=PART-LAYER
0., 0., 0.007
*End Instance
**
*Instance, name=LAYER9, part=PART-LAYER
0., 0., 0.008
*End Instance
**
*Instance, name=LAYER10, part=PART-LAYER
0., 0., 0.009000000000000001
*End Instance
**
*Instance, name=LAYER11, part=PART-LAYER
0., 0., 0.01
*End Instance
**
*Instance, name=LAYER12, part=PART-LAYER
0., 0., 0.011
*End Instance
**
*Instance, name=LAYER13, part=PART-LAYER
0., 0., 0.012
*End Instance
**
*Instance, name=LAYER14, part=PART-LAYER
0., 0., 0.013000000000000001
*End Instance
**
*Instance, name=LAYER15, part=PART-LAYER
0., 0., 0.014
*End Instance
**
*Instance, name=LAYER16, part=PART-LAYER
0., 0., 0.015
*End Instance
**
*Instance, name=LAYER17, part=PART-LAYER
0., 0., 0.016
*End Instance
**
*Instance, name=LAYER18, part=PART-LAYER
0., 0., 0.017
*End Instance
**
*Node
1, 0.1, 0.025, 0.
*Node
2, 0.1, 0.025, 0.018000000000000002
*Nset, nset=SetRigidBottom, internal, instance=Layer1
7, 8, 9, 10, 11, 12, 19, 20, 21, 22, 23, 24, 31, 32, 33, 34, 
35, 36, 43, 44, 45, 46, 47, 48, 55, 56, 57, 58, 59, 60, 67, 68, 
69, 70, 71, 72, 79, 80, 81, 82, 83, 84, 91, 92, 93, 94, 95, 96, 
103, 104, 105, 106, 107, 108, 115, 116, 117, 118, 119, 120, 127, 128, 129, 130, 
131, 132, 139, 140, 141, 142, 143, 144, 151, 152, 153, 154, 155, 156, 163, 164, 
165, 166, 167, 168, 175, 176, 177, 178, 179, 180, 187, 188, 189, 190, 191, 192, 
199, 200, 201, 202, 203, 204, 211, 212, 213, 214, 215, 216, 223, 224, 225, 226, 
227, 228, 235, 236, 237, 238, 239, 240, 247, 248, 249, 250, 251, 252, 
*Nset, nset=SetRigidTop, internal, instance=Layer18
1, 2, 3, 4, 5, 6, 13, 14, 15, 16, 17, 18, 25, 26, 27, 28, 
29, 30, 37, 38, 39, 40, 41, 42, 49, 50, 51, 52, 53, 54, 61, 62, 
63, 64, 65, 66, 73, 74, 75, 76, 77, 78, 85, 86, 87, 88, 89, 90, 
97, 98, 99, 100, 101, 102, 109, 110, 111, 112, 113, 114, 121, 122, 123, 124, 
125, 126, 133, 134, 135, 136, 137, 138, 145, 146, 147, 148, 149, 150, 157, 158, 
159, 160, 161, 162, 169, 170, 171, 172, 173, 174, 181, 182, 183, 184, 185, 186, 
193, 194, 195, 196, 197, 198, 205, 206, 207, 208, 209, 210, 217, 218, 219, 220, 
221, 222, 229, 230, 231, 232, 233, 234, 241, 242, 243, 244, 245, 246, 
*Nset, nset=SETRP1
 1,
*Nset, nset=SETRP2
 2,
*Surface, type=NODE, name=SETRIGIDBOTTOM_CNS_, internal
SETRIGIDBOTTOM, 1.
*Surface, type=NODE, name=SETRIGIDTOP_CNS_, internal
SETRIGIDTOP, 1.
** Constrain: Bottomcouple
*Coupling, constraint name=BOTTOMCOUPLE, ref node=SETRP1, surface=SETRIGIDBOTTOM_CNS_
*Kinematic
*Coupling, constraint name=TOPCOUPLE, ref node=SETRP2, surface=SETRIGIDTOP_CNS_
*Kinematic
*Elset, elset=_botlayer1_S5, internal, instance=Layer1, generate
 1, 100
*Surface, type=ELEMENT, name=botlayer1
_botlayer1_S5, S5
*Elset, elset=_botlayer2_S5, internal, instance=Layer2, generate
 1, 100
*Surface, type=ELEMENT, name=botlayer2
_botlayer2_S5, S5
*Elset, elset=_botlayer3_S5, internal, instance=Layer3, generate
 1, 100
*Surface, type=ELEMENT, name=botlayer3
_botlayer3_S5, S5
*Elset, elset=_botlayer4_S5, internal, instance=Layer4, generate
 1, 100
*Surface, type=ELEMENT, name=botlayer4
_botlayer4_S5, S5
*Elset, elset=_botlayer5_S5, internal, instance=Layer5, generate
 1, 100
*Surface, type=ELEMENT, name=botlayer5
_botlayer5_S5, S5
*Elset, elset=_botlayer6_S5, internal, instance=Layer6, generate
 1, 100
*Surface, type=ELEMENT, name=botlayer6
_botlayer6_S5, S5
*Elset, elset=_botlayer7_S5, internal, instance=Layer7, generate
 1, 100
*Surface, type=ELEMENT, name=botlayer7
_botlayer7_S5, S5
*Elset, elset=_botlayer8_S5, internal, instance=Layer8, generate
 1, 100
*Surface, type=ELEMENT, name=botlayer8
_botlayer8_S5, S5
*Elset, elset=_botlayer9_S5, internal, instance=Layer9, generate
 1, 100
*Surface, type=ELEMENT, name=botlayer9
_botlayer9_S5, S5
*Elset, elset=_botlayer10_S5, internal, instance=Layer10, generate
 1, 100
*Surface, type=ELEMENT, name=botlayer10
_botlayer10_S5, S5
*Elset, elset=_botlayer11_S5, internal, instance=Layer11, generate
 1, 100
*Surface, type=ELEMENT, name=botlayer11
_botlayer11_S5, S5
*Elset, elset=_botlayer12_S5, internal, instance=Layer12, generate
 1, 100
*Surface, type=ELEMENT, name=botlayer12
_botlayer12_S5, S5
*Elset, elset=_botlayer13_S5, internal, instance=Layer13, generate
 1, 100
*Surface, type=ELEMENT, name=botlayer13
_botlayer13_S5, S5
*Elset, elset=_botlayer14_S5, internal, instance=Layer14, generate
 1, 100
*Surface, type=ELEMENT, name=botlayer14
_botlayer14_S5, S5
*Elset, elset=_botlayer15_S5, internal, instance=Layer15, generate
 1, 100
*Surface, type=ELEMENT, name=botlayer15
_botlayer15_S5, S5
*Elset, elset=_botlayer16_S5, internal, instance=Layer16, generate
 1, 100
*Surface, type=ELEMENT, name=botlayer16
_botlayer16_S5, S5
*Elset, elset=_botlayer17_S5, internal, instance=Layer17, generate
 1, 100
*Surface, type=ELEMENT, name=botlayer17
_botlayer17_S5, S5
*Elset, elset=_botlayer18_S5, internal, instance=Layer18, generate
 1, 100
*Surface, type=ELEMENT, name=botlayer18
_botlayer18_S5, S5
*Elset, elset=_toplayer1_S3, internal, instance=Layer1, generate
 1, 100
*Surface, type=ELEMENT, name=toplayer1
_toplayer1_S3, S3
*Elset, elset=_toplayer2_S3, internal, instance=Layer2, generate
 1, 100
*Surface, type=ELEMENT, name=toplayer2
_toplayer2_S3, S3
*Elset, elset=_toplayer3_S3, internal, instance=Layer3, generate
 1, 100
*Surface, type=ELEMENT, name=toplayer3
_toplayer3_S3, S3
*Elset, elset=_toplayer4_S3, internal, instance=Layer4, generate
 1, 100
*Surface, type=ELEMENT, name=toplayer4
_toplayer4_S3, S3
*Elset, elset=_toplayer5_S3, internal, instance=Layer5, generate
 1, 100
*Surface, type=ELEMENT, name=toplayer5
_toplayer5_S3, S3
*Elset, elset=_toplayer6_S3, internal, instance=Layer6, generate
 1, 100
*Surface, type=ELEMENT, name=toplayer6
_toplayer6_S3, S3
*Elset, elset=_toplayer7_S3, internal, instance=Layer7, generate
 1, 100
*Surface, type=ELEMENT, name=toplayer7
_toplayer7_S3, S3
*Elset, elset=_toplayer8_S3, internal, instance=Layer8, generate
 1, 100
*Surface, type=ELEMENT, name=toplayer8
_toplayer8_S3, S3
*Elset, elset=_toplayer9_S3, internal, instance=Layer9, generate
 1, 100
*Surface, type=ELEMENT, name=toplayer9
_toplayer9_S3, S3
*Elset, elset=_toplayer10_S3, internal, instance=Layer10, generate
 1, 100
*Surface, type=ELEMENT, name=toplayer10
_toplayer10_S3, S3
*Elset, elset=_toplayer11_S3, internal, instance=Layer11, generate
 1, 100
*Surface, type=ELEMENT, name=toplayer11
_toplayer11_S3, S3
*Elset, elset=_toplayer12_S3, internal, instance=Layer12, generate
 1, 100
*Surface, type=ELEMENT, name=toplayer12
_toplayer12_S3, S3
*Elset, elset=_toplayer13_S3, internal, instance=Layer13, generate
 1, 100
*Surface, type=ELEMENT, name=toplayer13
_toplayer13_S3, S3
*Elset, elset=_toplayer14_S3, internal, instance=Layer14, generate
 1, 100
*Surface, type=ELEMENT, name=toplayer14
_toplayer14_S3, S3
*Elset, elset=_toplayer15_S3, internal, instance=Layer15, generate
 1, 100
*Surface, type=ELEMENT, name=toplayer15
_toplayer15_S3, S3
*Elset, elset=_toplayer16_S3, internal, instance=Layer16, generate
 1, 100
*Surface, type=ELEMENT, name=toplayer16
_toplayer16_S3, S3
*Elset, elset=_toplayer17_S3, internal, instance=Layer17, generate
 1, 100
*Surface, type=ELEMENT, name=toplayer17
_toplayer17_S3, S3
*Elset, elset=_toplayer18_S3, internal, instance=Layer18, generate
 1, 100
*Surface, type=ELEMENT, name=toplayer18
_toplayer18_S3, S3
*End Assembly
*Amplitude, name=AMPSMOOTH, definition=SMOOTH STEP
0., 0., 1.0, 1.
**
** MATERIALS
**
*Material, name=HYPODRAPE
*Damping, alpha=20.0
*Density
 1385.0,
*Depvar
 9,
*User Material, constants=21
1, 0, 0.0, 10000000000.0, 10000000000.0, 0.0, 0.0, 0.0
0.0, 0.0, 3000000000.0, 543946434.0, 6933171.0, 0.0013680806311035445, 0.24, 543946434.0
6933171.0, 0.0013634015465483192, 0.24, 1000000, 0.0001
** 
** INTERACTION PROPERTIES
** 
*Surface Interaction, name=GENERAL_CONTACT
*Friction
 0.1,
*Surface Behavior, pressure-overclosure=HARD
*Surface Interaction, name=INTPROP-1
*Cohesive Behavior
5.0e+9, 5557118844.5, 5557118844.5
*Damage Initiation, criterion=QUADU
1.2e-05, 2.04303e-06, 2.04303e-06
*Damage Evolution, type=DISPLACEMENT, softening=TABULAR, MIXED MODE BEHAVIOR=TABULAR
0.000000000000000000e+00,0.000000000000000000e+00,0.000000000000000000e+00,0.000000000000000000e+00
2.226179875333911262e-03,2.672546161126528111e-08,0.000000000000000000e+00,0.000000000000000000e+00
8.845749153130078035e-03,1.069018464450611244e-07,0.000000000000000000e+00,0.000000000000000000e+00
1.968565939084698790e-02,2.405291545013874935e-07,0.000000000000000000e+00,0.000000000000000000e+00
3.446990669427141274e-02,4.276073857802444977e-07,0.000000000000000000e+00,0.000000000000000000e+00
5.283660723041494478e-02,6.681365402816320971e-07,0.000000000000000000e+00,0.000000000000000000e+00
7.435911735727696037e-02,9.621166180055499742e-07,0.000000000000000000e+00,0.000000000000000000e+00
9.856901923423555534e-02,1.309547618951998605e-06,0.000000000000000000e+00,0.000000000000000000e+00
1.249788609973391251e-01,1.710429543120977991e-06,0.000000000000000000e+00,0.000000000000000000e+00
1.531028851388132050e-01,2.164762390512487283e-06,0.000000000000000000e+00,0.000000000000000000e+00
1.824744928030236357e-01,2.672546161126528388e-06,0.000000000000000000e+00,0.000000000000000000e+00
2.126597584466346502e-01,3.233780854963098554e-06,0.000000000000000000e+00,0.000000000000000000e+00
2.432668302636099567e-01,3.848466472022199897e-06,0.000000000000000000e+00,0.000000000000000000e+00
2.739514629332323592e-01,4.516603012303832841e-06,0.000000000000000000e+00,0.000000000000000000e+00
3.044192038816554424e-01,5.238190475807994422e-06,0.000000000000000000e+00,0.000000000000000000e+00
3.344248961945122112e-01,6.013228862534688874e-06,0.000000000000000000e+00,0.000000000000000000e+00
3.637701938639358312e-01,6.841718172483911963e-06,0.000000000000000000e+00,0.000000000000000000e+00
3.922997398061794927e-01,7.723658405655667924e-06,0.000000000000000000e+00,0.000000000000000000e+00
4.198965654793701541e-01,8.659049562049949133e-06,0.000000000000000000e+00,0.000000000000000000e+00
4.464771591684888463e-01,9.647891641666766601e-06,0.000000000000000000e+00,0.000000000000000000e+00
** ... 848 like lines cut
**
** ELEMENT CONTROLS
**
*Section Controls, name = EC-1, hourglass=STIFFNESS
5., 1., 1.
**
** BOUNDARY CONDITIONS
**
** Name: Disp-BC-1 Type: Displacement/Rotation
*Boundary
SETRP2, 2, 2
** Name: Disp-BC-1 Type: Displacement/Rotation
*Boundary
SETRP2, 4, 4
** Name: Disp-BC-1 Type: Displacement/Rotation
*Boundary
SETRP2, 5, 5
** Name: Disp-BC-1 Type: Displacement/Rotation
*Boundary
SETRP2, 6, 6
** Name: Disp-BC-1 Type: Displacement/Rotation
*Boundary
SETRP1, 1, 1
** Name: Disp-BC-1 Type: Displacement/Rotation
*Boundary
SETRP1, 2, 2
** Name: Disp-BC-1 Type: Displacement/Rotation
*Boundary
SETRP1, 3, 3
** Name: Disp-BC-1 Type: Displacement/Rotation
*Boundary
SETRP1, 4, 4
** Name: Disp-BC-1 Type: Displacement/Rotation
*Boundary
SETRP1, 5, 5
** Name: Disp-BC-1 Type: Displacement/Rotation
*Boundary
SETRP1, 6, 6
** ----------------------------------------------------------------
**
** STEP: apply_load
**
*Step, name=apply_load, nlgeom=YES
*Dynamic, Explicit
 , 1.0
*Bulk Viscosity
 0.06, 1.2
**
** BOUNDARY CONDITIONS
**
** Name: Displacement Type: Displacement/Rotation
*Boundary, amplitude=AmpSmooth
setRP2, 1, 1, 0.003
setRP2, 3, 3, 0.000
**
** INTERACTIONS
**
** Interaction: general_contact
*Contact, op=NEW
*Contact Inclusions, ALL EXTERIOR
*Contact Property Assignment
  ,  , GENERAL_CONTACT
toplayer1, botlayer2, INTPROP-1
toplayer2, botlayer3, INTPROP-1
toplayer3, botlayer4, INTPROP-1
toplayer4, botlayer5, INTPROP-1
toplayer5, botlayer6, INTPROP-1
toplayer6, botlayer7, INTPROP-1
toplayer7, botlayer8, INTPROP-1
toplayer8, botlayer9, INTPROP-1
toplayer9, botlayer10, INTPROP-1
toplayer10, botlayer11, INTPROP-1
toplayer11, botlayer12, INTPROP-1
toplayer12, botlayer13, INTPROP-1
toplayer13, botlayer14, INTPROP-1
toplayer14, botlayer15, INTPROP-1
toplayer15, botlayer16, INTPROP-1
toplayer16, botlayer17, INTPROP-1
toplayer17, botlayer18, INTPROP-1
**
** OUTPUT REQUESTS
**
*Restart, write, number interval=1, time marks=NO
**
** FIELD OUTPUT: F-Output-1
**
*Output, field
*Node Output
 A, RF, U, V
*Element Output, directions=YES
LE, PE, PEEQ, S, SDV
*Contact Output, Variable = ALL
**
** HISTORY OUTPUT: H-Output-2
**
*Output, history, time interval=0.02
*Node Output, nset=setRP2
 RF3, U3, RF1, U1
**
** HISTORY OUTPUT: H-Output-1
**
*Output, history, variable=PRESELECT, time interval=0.02
*End Step