*Heading 
** Job name: model_cantilever Model name: model_cantilever
** Generated by: in-house model generator 
*Preprint, echo=NO, model=NO, history=NO, contact=NO 
**
** PARTS
**
*Part, name=PART-LAYER
*Node
1, 0.25000000, 0.05000000, 0.00100000
2, 0.25000000, 0.04000000, 0.00100000
3, 0.25000000, 0.03000000, 0.00100000
4, 0.25000000, 0.02000000, 0.00100000
5, 0.25000000, 0.01000000, 0.00100000
6, 0.25000000, 0.00000000, 0.00100000
7, 0.25000000, 0.05000000, 0.00000000
8, 0.25000000, 0.04000000, 0.00000000
9, 0.25000000, 0.03000000, 0.00000000
10, 0.25000000, 0.02000000, 0.00000000
11, 0.25000000, 0.01000000, 0.00000000
12, 0.25000000, 0.00000000, 0.00000000
13, 0.24000000, 0.05000000, 0.00100000
14, 0.24000000, 0.04000000, 0.00100000
15, 0.24000000, 0.03000000, 0.00100000
16, 0.24000000, 0.02000000, 0.00100000
17, 0.24000000, 0.01000000, 0.00100000
18, 0.24000000, 0.00000000, 0.00100000
19, 0.24000000, 0.05000000, 0.00000000
20, 0.24000000, 0.04000000, 0.00000000
** ... 292 like lines cut
*Element, type=SC8R
1, 13, 14, 20, 19, 1, 2, 8, 7
2, 14, 15, 21, 20, 2, 3, 9, 8
3, 15, 16, 22, 21, 3, 4, 10, 9
4, 16, 17, 23, 22, 4, 5, 11, 10
5, 17, 18, 24, 23, 5, 6, 12, 11
6, 25, 26, 32, 31, 13, 14, 20, 19
7, 26, 27, 33, 32, 14, 15, 21, 20
8, 27, 28, 34, 33, 15, 16, 22, 21
9, 28, 29, 35, 34, 16, 17, 23, 22
10, 29, 30, 36, 35, 17, 18, 24, 23
11, 37, 38, 44, 43, 25, 26, 32, 31
12, 38, 39, 45, 44, 26, 27, 33, 32
13, 39, 40, 46, 45, 27, 28, 34, 33
14, 40, 41, 47, 46, 28, 29, 35, 34
15, 41, 42, 48, 47, 29, 30, 36, 35
16, 49, 50, 56, 55, 37, 38, 44, 43
17, 50, 51, 57, 56, 38, 39, 45, 44
18, 51, 52, 58, 57, 39, 40, 46, 45
19, 52, 53, 59, 58, 40, 41, 47, 46
20, 53, 54, 60, 59, 41, 42, 48, 47
** ... 105 like lines cut
*Nset, nset=LAYER, generate
1, 312, 1
*Elset, elset=LAYER, generate
1, 125, 1
*Orientation, name=Ori-1
1., 0., 0., 0., 1., 0.
3, 0.
** Section: Section-1
*Shell Section, elset=LAYER, material=HYPODRAPE, orientation=Ori-1, controls=EC-1, poisson=0.0, thickness modulus=117000000.0, stack direction=ORIENTATION
1., 11
*Transverse Shear Stiffness
441667.0, 441667.0, 0.0
*End Part
**
*Part, name=Part-Tool1
*End Part
**
*Part, name=Part-Tool2
*End Part
**
**
** ASSEMBLY
**
*Assembly, name=Assembly
**
*Instance, name=LAYER1, part=PART-LAYER
0., 0., 0.0
*End Instance
**
*Nset, nset=SetEndFix, instance=Layer1, generate
301, 312, 1
*Elset, elset=_botlayer1_S5, internal, instance=Layer1, generate
 1, 125
*Surface, type=ELEMENT, name=botlayer1
_botlayer1_S5, S5
*Elset, elset=_toplayer1_S3, internal, instance=Layer1, generate
 1, 125
*Surface, type=ELEMENT, name=toplayer1
_toplayer1_S3, S3
*End Assembly
**
** MATERIALS
**
*Material, name=HYPODRAPE
*Damping, alpha=20.0
*Density
 1385.0,
*Depvar
 9,
*User Material, constants=21
1, 0, 0.0, 1.4307e9, 1.4307e9, 0.0, 0.0, 0.0
0.0, 0.0, 3000000000.0, 1430580003, 4960906, 0.0006114640288674634, 0.24, 1430580003
4960906, 0.0006114640288674634, 0.24, 1000000, 0.0001
**
** ELEMENT CONTROLS
**
*Section Controls, name = EC-1, hourglass=STIFFNESS
10., 10., 10.
**
** BOUNDARY CONDITIONS
**
** Name: FixedEnd Type: Symmetry/Antisymmetry/Encastre
*Boundary
 SetEndFix, ENCASTRE
** ----------------------------------------------------------------
**
** STEP: apply_load
**
*Step, name=apply_load, nlgeom=YES
*Dynamic, Explicit
 , 2.0
*Bulk Viscosity
 0.06, 1.2
**
** LOADS
**
** Name: Load-1   Type: Gravity
*Dload
, GRAV, 9.82, 0., 0., -1.
**
** OUTPUT REQUESTS
**
*Restart, write, number interval=1, time marks=NO
**
** FIELD OUTPUT: F-Output-1
**
*Output, field
*Node Output
 A, RF, U, V
*Element Output, directions=YES
LE, PE, PEEQ, S, SDV
*Contact Output, Variable = ALL
**
** HISTORY OUTPUT: H-Output-1
**
*Output, history, variable=PRESELECT, time interval=0.02
*End Step